obj01
  PyMOL3.1          3D                             0

 87 89  0  0  0  0  0  0  0  0999 V2000
   19.5750   52.9600  -21.4290 C   0  0  0  0  0  0  0  0  0  0  0  0
   19.1860   50.9590  -22.7050 N   0  0  0  0  0  0  0  0  0  0  0  0
   18.0190   51.3060  -20.8290 O   0  0  0  0  0  0  0  0  0  0  0  0
   18.8390   51.6460  -21.6290 C   0  0  0  0  0  0  0  0  0  0  0  0
    6.6190   48.8630  -21.8920 N   0  0  0  0  0  0  0  0  0  0  0  0
   19.7060   48.9570  -21.1910 O   0  0  0  0  0  0  0  0  0  0  0  0
   18.6300   49.6650  -23.1660 C   0  0  0  0  0  0  0  0  0  0  0  0
   18.4210   47.3490  -22.1540 O   0  0  0  0  0  0  0  0  0  0  0  0
   19.2960   48.5130  -22.3990 C   0  0  0  0  0  0  0  0  0  0  0  0
   17.2670   44.7530  -23.4390 O   0  0  0  0  0  0  0  0  0  0  0  0
   17.4070   47.0770  -23.2010 C   0  0  0  0  0  0  0  0  0  0  0  0
   15.9420   48.1380  -24.6340 O   0  0  0  0  0  0  0  0  0  0  0  0
   16.6520   45.8330  -22.8510 C   0  0  0  0  0  0  0  0  0  0  0  0
   13.5700   47.9140  -24.2740 O   0  0  0  0  0  0  0  0  0  0  0  0
   16.4480   48.2350  -23.3360 C   0  0  0  0  0  0  0  0  0  0  0  0
   10.8970   46.7920  -24.5640 O   0  0  0  0  0  0  0  0  0  0  0  0
   14.6120   48.5550  -24.9750 C   0  0  0  0  0  0  0  0  0  0  0  0
    6.5760   48.7870  -24.6980 O   0  0  0  0  0  0  0  0  0  0  0  0
   13.3050   46.5310  -24.6170 C   0  0  0  0  0  0  0  0  0  0  0  0
    7.0770   50.9210  -21.2570 O   0  0  0  0  0  0  0  0  0  0  0  0
   11.9920   46.1890  -23.8960 C   0  0  0  0  0  0  0  0  0  0  0  0
    9.9330   47.5630  -22.6750 O   0  0  0  0  0  0  0  0  0  0  0  0
    9.6720   46.8680  -23.9000 C   0  0  0  0  0  0  0  0  0  0  0  0
    9.7790   49.8170  -20.9210 O   0  0  0  0  0  0  0  0  0  0  0  0
    8.6660   47.6390  -24.7460 C   0  0  0  0  0  0  0  0  0  0  0  0
   10.0160   46.4030  -19.8730 O   0  0  0  0  0  0  0  0  0  0  0  0
    7.4290   47.9660  -23.9480 C   0  0  0  0  0  0  0  0  0  0  0  0
   11.7460   47.6790  -17.9930 O   0  0  0  0  0  0  0  0  0  0  0  0
    7.8010   48.6890  -22.6720 C   0  0  0  0  0  0  0  0  0  0  0  0
    8.7970   44.7680  -24.5850 O   0  0  0  0  0  0  0  0  0  0  0  0
    6.3250   49.9710  -21.2450 C   0  0  0  0  0  0  0  0  0  0  0  0
    9.0740   45.0740  -22.4590 O   0  0  0  0  0  0  0  0  0  0  0  0
    5.0660   49.9890  -20.4650 C   0  0  0  0  0  0  0  0  0  0  0  0
   13.0680   44.9280  -26.3630 O   0  0  0  0  0  0  0  0  0  0  0  0
    8.8110   47.8540  -21.9020 C   0  0  0  0  0  0  0  0  0  0  0  0
   14.1930   46.7670  -28.2140 O   0  0  0  0  0  0  0  0  0  0  0  0
    9.2920   48.5330  -20.6300 C   0  0  0  0  0  0  0  0  0  0  0  0
   15.5820   48.9690  -27.0980 O   0  0  0  0  0  0  0  0  0  0  0  0
   10.3810   47.7530  -19.9770 C   0  0  0  0  0  0  0  0  0  0  0  0
   16.5790   50.6630  -23.8380 O   0  0  0  0  0  0  0  0  0  0  0  0
   10.6270   48.2870  -18.6000 C   0  0  0  0  0  0  0  0  0  0  0  0
    9.1360   45.4800  -23.6310 C   0  0  0  0  0  0  0  0  0  0  0  0
   13.1510   46.3240  -26.1150 C   0  0  0  0  0  0  0  0  0  0  0  0
   14.3590   46.9050  -26.8320 C   0  0  0  0  0  0  0  0  0  0  0  0
   14.4830   48.3720  -26.4800 C   0  0  0  0  0  0  0  0  0  0  0  0
   17.0870   49.6150  -23.0200 C   0  0  0  0  0  0  0  0  0  0  0  0
   20.5212   52.9317  -21.9694 H   0  0  0  0  0  0  0  0  0  0  0  0
   18.9651   53.7801  -21.8081 H   0  0  0  0  0  0  0  0  0  0  0  0
   19.7682   53.1109  -20.3669 H   0  0  0  0  0  0  0  0  0  0  0  0
   19.9132   51.3627  -23.2780 H   0  0  0  0  0  0  0  0  0  0  0  0
    5.9702   48.0912  -21.8329 H   0  0  0  0  0  0  0  0  0  0  0  0
   19.9439   48.2089  -20.6384 H   0  0  0  0  0  0  0  0  0  0  0  0
   18.8487   49.5582  -24.2285 H   0  0  0  0  0  0  0  0  0  0  0  0
   20.1167   48.1831  -23.0360 H   0  0  0  0  0  0  0  0  0  0  0  0
   17.3643   44.9130  -24.3806 H   0  0  0  0  0  0  0  0  0  0  0  0
   17.9180   46.9432  -24.1545 H   0  0  0  0  0  0  0  0  0  0  0  0
   15.6264   45.9125  -23.2116 H   0  0  0  0  0  0  0  0  0  0  0  0
   16.6419   45.7036  -21.7688 H   0  0  0  0  0  0  0  0  0  0  0  0
   15.6511   48.1746  -22.5947 H   0  0  0  0  0  0  0  0  0  0  0  0
   14.4883   49.5940  -24.6697 H   0  0  0  0  0  0  0  0  0  0  0  0
    6.3285   48.3364  -25.5087 H   0  0  0  0  0  0  0  0  0  0  0  0
   14.1351   45.8916  -24.3168 H   0  0  0  0  0  0  0  0  0  0  0  0
   12.0378   46.5668  -22.8746 H   0  0  0  0  0  0  0  0  0  0  0  0
   11.8571   45.1074  -23.8852 H   0  0  0  0  0  0  0  0  0  0  0  0
    9.8598   50.3210  -20.1080 H   0  0  0  0  0  0  0  0  0  0  0  0
    8.3781   47.0189  -25.5949 H   0  0  0  0  0  0  0  0  0  0  0  0
    9.1246   48.5659  -25.0903 H   0  0  0  0  0  0  0  0  0  0  0  0
    9.9453   46.1605  -18.9468 H   0  0  0  0  0  0  0  0  0  0  0  0
    6.9240   47.0314  -23.7041 H   0  0  0  0  0  0  0  0  0  0  0  0
   12.0382   46.9381  -18.5289 H   0  0  0  0  0  0  0  0  0  0  0  0
    8.2408   49.6606  -22.8973 H   0  0  0  0  0  0  0  0  0  0  0  0
    4.2614   49.5639  -21.0650 H   0  0  0  0  0  0  0  0  0  0  0  0
    5.1919   49.3992  -19.5571 H   0  0  0  0  0  0  0  0  0  0  0  0
    4.8168   51.0165  -20.1998 H   0  0  0  0  0  0  0  0  0  0  0  0
   12.9215   44.4636  -25.5356 H   0  0  0  0  0  0  0  0  0  0  0  0
    8.2794   46.9389  -21.6409 H   0  0  0  0  0  0  0  0  0  0  0  0
   13.8069   45.9094  -28.4064 H   0  0  0  0  0  0  0  0  0  0  0  0
    8.4406   48.5950  -19.9523 H   0  0  0  0  0  0  0  0  0  0  0  0
   15.7909   49.7938  -26.6533 H   0  0  0  0  0  0  0  0  0  0  0  0
   11.2826   47.8431  -20.5829 H   0  0  0  0  0  0  0  0  0  0  0  0
   16.3835   50.3204  -24.7132 H   0  0  0  0  0  0  0  0  0  0  0  0
    9.7506   48.0666  -17.9905 H   0  0  0  0  0  0  0  0  0  0  0  0
   10.7998   49.3614  -18.6634 H   0  0  0  0  0  0  0  0  0  0  0  0
   12.2525   46.8224  -26.4789 H   0  0  0  0  0  0  0  0  0  0  0  0
   15.2606   46.3755  -26.5242 H   0  0  0  0  0  0  0  0  0  0  0  0
   13.5749   48.8554  -26.8402 H   0  0  0  0  0  0  0  0  0  0  0  0
   16.8152   49.7587  -21.9742 H   0  0  0  0  0  0  0  0  0  0  0  0
  1  4  1  0  0  0  0
  1 47  1  0  0  0  0
  1 48  1  0  0  0  0
  1 49  1  0  0  0  0
  2  7  1  0  0  0  0
  2 50  1  0  0  0  0
  2  4  1  0  0  0  0
  3  4  2  0  0  0  0
  5 31  1  0  0  0  0
  5 51  1  0  0  0  0
  6 52  1  0  0  0  0
  7  9  1  0  0  0  0
  7 46  1  0  0  0  0
  7 53  1  0  0  0  0
  8 11  1  0  0  0  0
  6  9  1  0  0  0  0
  8  9  1  0  0  0  0
  9 54  1  0  0  0  0
 10 55  1  0  0  0  0
 11 13  1  0  0  0  0
 11 15  1  0  0  0  0
 11 56  1  0  0  0  0
 12 17  1  0  0  0  0
 10 13  1  0  0  0  0
 13 57  1  0  0  0  0
 13 58  1  0  0  0  0
 14 19  1  0  0  0  0
 12 15  1  0  0  0  0
 15 46  1  0  0  0  0
 15 59  1  0  0  0  0
 16 23  1  0  0  0  0
 14 17  1  0  0  0  0
 17 45  1  0  0  0  0
 17 60  1  0  0  0  0
 18 61  1  0  0  0  0
 19 21  1  0  0  0  0
 19 43  1  0  0  0  0
 19 62  1  0  0  0  0
 16 21  1  0  0  0  0
 21 63  1  0  0  0  0
 21 64  1  0  0  0  0
 22 23  1  0  0  0  0
 23 25  1  0  0  0  0
 23 42  1  0  0  0  0
 24 65  1  0  0  0  0
 25 27  1  0  0  0  0
 25 66  1  0  0  0  0
 25 67  1  0  0  0  0
 26 68  1  0  0  0  0
 18 27  1  0  0  0  0
 27 29  1  0  0  0  0
 27 69  1  0  0  0  0
 28 70  1  0  0  0  0
  5 29  1  0  0  0  0
 29 35  1  0  0  0  0
 29 71  1  0  0  0  0
 20 31  2  0  0  0  0
 31 33  1  0  0  0  0
 33 72  1  0  0  0  0
 33 73  1  0  0  0  0
 33 74  1  0  0  0  0
 34 75  1  0  0  0  0
 22 35  1  0  0  0  0
 35 37  1  0  0  0  0
 35 76  1  0  0  0  0
 36 77  1  0  0  0  0
 24 37  1  0  0  0  0
 37 39  1  0  0  0  0
 37 78  1  0  0  0  0
 38 79  1  0  0  0  0
 26 39  1  0  0  0  0
 39 41  1  0  0  0  0
 39 80  1  0  0  0  0
 40 81  1  0  0  0  0
 28 41  1  0  0  0  0
 41 82  1  0  0  0  0
 41 83  1  0  0  0  0
 30 42  4  0  0  0  0
 32 42  4  0  0  0  0
 34 43  1  0  0  0  0
 43 44  1  0  0  0  0
 43 84  1  0  0  0  0
 36 44  1  0  0  0  0
 44 45  1  0  0  0  0
 44 85  1  0  0  0  0
 38 45  1  0  0  0  0
 45 86  1  0  0  0  0
 40 46  1  0  0  0  0
 46 87  1  0  0  0  0
M  END
$$$$
