obj01
  PyMOL3.1          3D                             0

 87 89  0  0  0  0  0  0  0  0999 V2000
  -32.0570  -42.0580   22.4680 C   0  0  0  0  0  0  0  0  0  0  0  0
  -32.8440  -41.4980   20.2770 N   0  0  0  0  0  0  0  0  0  0  0  0
  -31.1800  -40.3360   21.1350 O   0  0  0  0  0  0  0  0  0  0  0  0
  -31.9830  -41.2150   21.2310 C   0  0  0  0  0  0  0  0  0  0  0  0
  -40.8160  -33.7490   11.7240 N   0  0  0  0  0  0  0  0  0  0  0  0
  -31.6270  -42.5640   18.0280 O   0  0  0  0  0  0  0  0  0  0  0  0
  -32.8740  -40.8050   18.9990 C   0  0  0  0  0  0  0  0  0  0  0  0
  -32.8360  -41.2260   16.5910 O   0  0  0  0  0  0  0  0  0  0  0  0
  -32.6610  -41.7830   17.8990 C   0  0  0  0  0  0  0  0  0  0  0  0
  -33.2940  -39.0350   14.7920 O   0  0  0  0  0  0  0  0  0  0  0  0
  -34.1340  -40.5570   16.4170 C   0  0  0  0  0  0  0  0  0  0  0  0
  -35.5550  -38.8740   17.2760 O   0  0  0  0  0  0  0  0  0  0  0  0
  -34.1860  -40.0890   14.9940 C   0  0  0  0  0  0  0  0  0  0  0  0
  -35.2110  -36.8380   18.3420 O   0  0  0  0  0  0  0  0  0  0  0  0
  -34.2930  -39.4620   17.4440 C   0  0  0  0  0  0  0  0  0  0  0  0
  -33.4720  -35.3330   19.9060 O   0  0  0  0  0  0  0  0  0  0  0  0
  -35.5650  -37.4750   17.1060 C   0  0  0  0  0  0  0  0  0  0  0  0
  -36.6030  -33.5010   17.7630 O   0  0  0  0  0  0  0  0  0  0  0  0
  -35.1930  -35.3940   18.2640 C   0  0  0  0  0  0  0  0  0  0  0  0
  -38.3900  -35.1660   16.3660 O   0  0  0  0  0  0  0  0  0  0  0  0
  -34.7490  -34.8440   19.5840 C   0  0  0  0  0  0  0  0  0  0  0  0
  -42.0940  -33.2680   14.1880 O   0  0  0  0  0  0  0  0  0  0  0  0
  -36.5880  -34.8980   17.8910 C   0  0  0  0  0  0  0  0  0  0  0  0
  -41.8640  -35.4910   10.8870 O   0  0  0  0  0  0  0  0  0  0  0  0
  -37.0350  -35.5180   16.5850 C   0  0  0  0  0  0  0  0  0  0  0  0
  -38.4820  -35.2340   14.1120 O   0  0  0  0  0  0  0  0  0  0  0  0
  -38.7270  -34.4010   15.2550 C   0  0  0  0  0  0  0  0  0  0  0  0
  -39.3230  -36.8760   11.9260 O   0  0  0  0  0  0  0  0  0  0  0  0
  -40.1910  -34.0520   15.3740 C   0  0  0  0  0  0  0  0  0  0  0  0
  -36.3240  -34.9010   11.8720 O   0  0  0  0  0  0  0  0  0  0  0  0
  -40.7120  -33.4730   14.0940 C   0  0  0  0  0  0  0  0  0  0  0  0
  -35.4500  -37.2280   10.5280 O   0  0  0  0  0  0  0  0  0  0  0  0
  -40.4130  -34.3970   12.9420 C   0  0  0  0  0  0  0  0  0  0  0  0
  -38.0900  -32.2820   16.0740 O   0  0  0  0  0  0  0  0  0  0  0  0
  -41.5290  -34.3380   10.7990 C   0  0  0  0  0  0  0  0  0  0  0  0
  -37.0850  -32.9610   14.2980 O   0  0  0  0  0  0  0  0  0  0  0  0
  -41.8840  -33.5160    9.6110 C   0  0  0  0  0  0  0  0  0  0  0  0
  -37.2940  -37.5890   15.4430 O   0  0  0  0  0  0  0  0  0  0  0  0
  -38.9390  -34.7110   12.8880 C   0  0  0  0  0  0  0  0  0  0  0  0
  -34.3240  -39.0830   19.8310 O   0  0  0  0  0  0  0  0  0  0  0  0
  -38.5740  -35.7050   11.7830 C   0  0  0  0  0  0  0  0  0  0  0  0
  -37.1300  -36.0660   11.8020 C   0  0  0  0  0  0  0  0  0  0  0  0
  -36.8020  -36.8060   10.5490 C   0  0  0  0  0  0  0  0  0  0  0  0
  -37.9160  -33.1260   15.2050 C   0  0  0  0  0  0  0  0  0  0  0  0
  -36.9490  -37.0370   16.7100 C   0  0  0  0  0  0  0  0  0  0  0  0
  -34.1980  -40.0750   18.8320 C   0  0  0  0  0  0  0  0  0  0  0  0
  -33.0883  -42.0978   22.8187 H   0  0  0  0  0  0  0  0  0  0  0  0
  -31.7115  -43.0668   22.2421 H   0  0  0  0  0  0  0  0  0  0  0  0
  -31.4267  -41.6225   23.2434 H   0  0  0  0  0  0  0  0  0  0  0  0
  -33.5173  -42.2329   20.4405 H   0  0  0  0  0  0  0  0  0  0  0  0
  -40.5345  -32.7906   11.5748 H   0  0  0  0  0  0  0  0  0  0  0  0
  -31.3639  -42.8926   17.1652 H   0  0  0  0  0  0  0  0  0  0  0  0
  -32.0746  -40.0648   18.9657 H   0  0  0  0  0  0  0  0  0  0  0  0
  -33.4888  -42.4825   18.0156 H   0  0  0  0  0  0  0  0  0  0  0  0
  -33.1034  -38.6110   15.6319 H   0  0  0  0  0  0  0  0  0  0  0  0
  -34.9808  -41.2214   16.5889 H   0  0  0  0  0  0  0  0  0  0  0  0
  -35.1958  -39.7422   14.7745 H   0  0  0  0  0  0  0  0  0  0  0  0
  -33.9211  -40.9152   14.3343 H   0  0  0  0  0  0  0  0  0  0  0  0
  -33.5149  -38.7082   17.3240 H   0  0  0  0  0  0  0  0  0  0  0  0
  -33.1558  -35.8959   19.1955 H   0  0  0  0  0  0  0  0  0  0  0  0
  -34.8486  -37.1978   16.3327 H   0  0  0  0  0  0  0  0  0  0  0  0
  -36.9771  -33.2611   16.9121 H   0  0  0  0  0  0  0  0  0  0  0  0
  -34.4955  -35.0547   17.4982 H   0  0  0  0  0  0  0  0  0  0  0  0
  -35.4543  -35.1544   20.3549 H   0  0  0  0  0  0  0  0  0  0  0  0
  -34.7159  -33.7559   19.5292 H   0  0  0  0  0  0  0  0  0  0  0  0
  -42.3841  -32.7042   13.4672 H   0  0  0  0  0  0  0  0  0  0  0  0
  -37.2705  -35.1914   18.6886 H   0  0  0  0  0  0  0  0  0  0  0  0
  -36.4078  -35.1684   15.7649 H   0  0  0  0  0  0  0  0  0  0  0  0
  -39.4851  -37.0410   12.8577 H   0  0  0  0  0  0  0  0  0  0  0  0
  -40.3070  -33.3089   16.1630 H   0  0  0  0  0  0  0  0  0  0  0  0
  -40.7546  -34.9538   15.6133 H   0  0  0  0  0  0  0  0  0  0  0  0
  -36.1368  -34.6955   12.7909 H   0  0  0  0  0  0  0  0  0  0  0  0
  -40.2183  -32.5172   13.9183 H   0  0  0  0  0  0  0  0  0  0  0  0
  -35.1461  -37.2850    9.6192 H   0  0  0  0  0  0  0  0  0  0  0  0
  -40.9578  -35.3321   13.0717 H   0  0  0  0  0  0  0  0  0  0  0  0
  -42.7316  -32.8751    9.8535 H   0  0  0  0  0  0  0  0  0  0  0  0
  -41.0316  -32.8985    9.3279 H   0  0  0  0  0  0  0  0  0  0  0  0
  -42.1502  -34.1712    8.7815 H   0  0  0  0  0  0  0  0  0  0  0  0
  -37.5365  -38.5116   15.5506 H   0  0  0  0  0  0  0  0  0  0  0  0
  -38.4539  -33.7589   12.6730 H   0  0  0  0  0  0  0  0  0  0  0  0
  -34.0076  -38.2431   19.4904 H   0  0  0  0  0  0  0  0  0  0  0  0
  -38.7957  -35.2164   10.8342 H   0  0  0  0  0  0  0  0  0  0  0  0
  -36.9318  -36.6846   12.6773 H   0  0  0  0  0  0  0  0  0  0  0  0
  -36.9607  -36.1333    9.7062 H   0  0  0  0  0  0  0  0  0  0  0  0
  -37.4472  -37.6815   10.4759 H   0  0  0  0  0  0  0  0  0  0  0  0
  -37.6304  -37.3841   17.4867 H   0  0  0  0  0  0  0  0  0  0  0  0
  -35.0163  -40.7866   18.9418 H   0  0  0  0  0  0  0  0  0  0  0  0
  1  4  1  0  0  0  0
  1 47  1  0  0  0  0
  1 48  1  0  0  0  0
  1 49  1  0  0  0  0
  2  7  1  0  0  0  0
  2 50  1  0  0  0  0
  2  4  1  0  0  0  0
  3  4  2  0  0  0  0
  5 35  1  0  0  0  0
  5 51  1  0  0  0  0
  6 52  1  0  0  0  0
  7  9  1  0  0  0  0
  7 46  1  0  0  0  0
  7 53  1  0  0  0  0
  8 11  1  0  0  0  0
  6  9  1  0  0  0  0
  8  9  1  0  0  0  0
  9 54  1  0  0  0  0
 10 55  1  0  0  0  0
 11 13  1  0  0  0  0
 11 15  1  0  0  0  0
 11 56  1  0  0  0  0
 12 17  1  0  0  0  0
 10 13  1  0  0  0  0
 13 57  1  0  0  0  0
 13 58  1  0  0  0  0
 14 19  1  0  0  0  0
 12 15  1  0  0  0  0
 15 46  1  0  0  0  0
 15 59  1  0  0  0  0
 16 60  1  0  0  0  0
 14 17  1  0  0  0  0
 17 45  1  0  0  0  0
 17 61  1  0  0  0  0
 18 62  1  0  0  0  0
 19 21  1  0  0  0  0
 19 23  1  0  0  0  0
 19 63  1  0  0  0  0
 20 27  1  0  0  0  0
 16 21  1  0  0  0  0
 21 64  1  0  0  0  0
 21 65  1  0  0  0  0
 22 66  1  0  0  0  0
 18 23  1  0  0  0  0
 23 25  1  0  0  0  0
 23 67  1  0  0  0  0
 20 25  1  0  0  0  0
 25 45  1  0  0  0  0
 25 68  1  0  0  0  0
 26 27  1  0  0  0  0
 27 29  1  0  0  0  0
 27 44  1  0  0  0  0
 28 69  1  0  0  0  0
 29 31  1  0  0  0  0
 29 70  1  0  0  0  0
 29 71  1  0  0  0  0
 30 72  1  0  0  0  0
 22 31  1  0  0  0  0
 31 33  1  0  0  0  0
 31 73  1  0  0  0  0
 32 74  1  0  0  0  0
  5 33  1  0  0  0  0
 33 39  1  0  0  0  0
 33 75  1  0  0  0  0
 24 35  2  0  0  0  0
 35 37  1  0  0  0  0
 37 76  1  0  0  0  0
 37 77  1  0  0  0  0
 37 78  1  0  0  0  0
 38 79  1  0  0  0  0
 26 39  1  0  0  0  0
 39 41  1  0  0  0  0
 39 80  1  0  0  0  0
 40 81  1  0  0  0  0
 28 41  1  0  0  0  0
 41 42  1  0  0  0  0
 41 82  1  0  0  0  0
 30 42  1  0  0  0  0
 42 43  1  0  0  0  0
 42 83  1  0  0  0  0
 32 43  1  0  0  0  0
 43 84  1  0  0  0  0
 43 85  1  0  0  0  0
 34 44  4  0  0  0  0
 36 44  4  0  0  0  0
 38 45  1  0  0  0  0
 45 86  1  0  0  0  0
 40 46  1  0  0  0  0
 46 87  1  0  0  0  0
M  END
$$$$
