obj01
  PyMOL3.1          3D                             0

 87 89  0  0  0  0  0  0  0  0999 V2000
   24.4730   46.7880  -22.7300 C   0  0  0  0  0  0  0  0  0  0  0  0
   22.5360   47.5940  -21.5830 N   0  0  0  0  0  0  0  0  0  0  0  0
   23.0570   45.4580  -21.4000 O   0  0  0  0  0  0  0  0  0  0  0  0
   23.2890   46.5460  -21.8400 C   0  0  0  0  0  0  0  0  0  0  0  0
    8.6560   49.3680  -20.1840 N   0  0  0  0  0  0  0  0  0  0  0  0
   22.7150   48.3050  -18.9040 O   0  0  0  0  0  0  0  0  0  0  0  0
   21.3840   47.5370  -20.6930 C   0  0  0  0  0  0  0  0  0  0  0  0
   20.4390   48.5320  -18.6800 O   0  0  0  0  0  0  0  0  0  0  0  0
   21.5880   48.4900  -19.5550 C   0  0  0  0  0  0  0  0  0  0  0  0
   17.7590   47.6930  -17.9130 O   0  0  0  0  0  0  0  0  0  0  0  0
   19.1990   48.8880  -19.3770 C   0  0  0  0  0  0  0  0  0  0  0  0
   17.7630   48.2800  -21.1390 O   0  0  0  0  0  0  0  0  0  0  0  0
   18.1170   48.9720  -18.3420 C   0  0  0  0  0  0  0  0  0  0  0  0
   17.0880   46.2950  -22.1560 O   0  0  0  0  0  0  0  0  0  0  0  0
   18.9240   47.8860  -20.4790 C   0  0  0  0  0  0  0  0  0  0  0  0
   17.7670   43.6340  -22.7250 O   0  0  0  0  0  0  0  0  0  0  0  0
   16.7160   47.3140  -21.2100 C   0  0  0  0  0  0  0  0  0  0  0  0
   13.7890   44.9410  -23.0080 O   0  0  0  0  0  0  0  0  0  0  0  0
   16.0850   45.2620  -22.3300 C   0  0  0  0  0  0  0  0  0  0  0  0
   13.2370   47.6380  -22.4880 O   0  0  0  0  0  0  0  0  0  0  0  0
   16.6200   44.2340  -23.2750 C   0  0  0  0  0  0  0  0  0  0  0  0
    8.9050   49.3480  -22.9790 O   0  0  0  0  0  0  0  0  0  0  0  0
   14.8040   45.8980  -22.8520 C   0  0  0  0  0  0  0  0  0  0  0  0
    8.8820   51.4860  -19.6060 O   0  0  0  0  0  0  0  0  0  0  0  0
   14.3250   46.9640  -21.8990 C   0  0  0  0  0  0  0  0  0  0  0  0
   12.1010   48.2400  -20.6380 O   0  0  0  0  0  0  0  0  0  0  0  0
   11.9890   47.5710  -21.8980 C   0  0  0  0  0  0  0  0  0  0  0  0
   11.6940   50.4270  -18.8510 O   0  0  0  0  0  0  0  0  0  0  0  0
   11.0350   48.3120  -22.8230 C   0  0  0  0  0  0  0  0  0  0  0  0
   11.8560   46.9980  -17.8060 O   0  0  0  0  0  0  0  0  0  0  0  0
    9.7220   48.5580  -22.1540 C   0  0  0  0  0  0  0  0  0  0  0  0
   13.2400   48.2520  -15.6930 O   0  0  0  0  0  0  0  0  0  0  0  0
    9.9270   49.2540  -20.8290 C   0  0  0  0  0  0  0  0  0  0  0  0
   11.3310   45.4650  -22.7290 O   0  0  0  0  0  0  0  0  0  0  0  0
    8.2140   50.4690  -19.6390 C   0  0  0  0  0  0  0  0  0  0  0  0
   11.3740   45.6820  -20.5860 O   0  0  0  0  0  0  0  0  0  0  0  0
    6.8670   50.4350  -19.0220 C   0  0  0  0  0  0  0  0  0  0  0  0
   15.0030   48.9260  -20.7020 O   0  0  0  0  0  0  0  0  0  0  0  0
   10.8860   48.4640  -19.9730 C   0  0  0  0  0  0  0  0  0  0  0  0
   19.8850   46.9240  -22.4720 O   0  0  0  0  0  0  0  0  0  0  0  0
   11.2050   49.1320  -18.6390 C   0  0  0  0  0  0  0  0  0  0  0  0
   12.2090   48.3650  -17.8560 C   0  0  0  0  0  0  0  0  0  0  0  0
   12.2580   48.9060  -16.4690 C   0  0  0  0  0  0  0  0  0  0  0  0
   11.5270   46.1370  -21.7280 C   0  0  0  0  0  0  0  0  0  0  0  0
   15.4510   47.9820  -21.6830 C   0  0  0  0  0  0  0  0  0  0  0  0
   20.1010   47.8680  -21.4470 C   0  0  0  0  0  0  0  0  0  0  0  0
   25.3355   46.2465  -22.3415 H   0  0  0  0  0  0  0  0  0  0  0  0
   24.2485   46.4378  -23.7375 H   0  0  0  0  0  0  0  0  0  0  0  0
   24.6962   47.8546  -22.7567 H   0  0  0  0  0  0  0  0  0  0  0  0
   22.7662   48.4745  -22.0209 H   0  0  0  0  0  0  0  0  0  0  0  0
    8.0658   48.5492  -20.1479 H   0  0  0  0  0  0  0  0  0  0  0  0
   23.0390   47.4167  -19.0700 H   0  0  0  0  0  0  0  0  0  0  0  0
   21.2872   46.5247  -20.3005 H   0  0  0  0  0  0  0  0  0  0  0  0
   21.6859   49.4776  -20.0058 H   0  0  0  0  0  0  0  0  0  0  0  0
   17.7302   47.6731  -16.9536 H   0  0  0  0  0  0  0  0  0  0  0  0
   19.2644   49.8548  -19.8761 H   0  0  0  0  0  0  0  0  0  0  0  0
   17.2443   49.4571  -18.7792 H   0  0  0  0  0  0  0  0  0  0  0  0
   18.4762   49.5505  -17.4909 H   0  0  0  0  0  0  0  0  0  0  0  0
   18.7951   46.8842  -20.0692 H   0  0  0  0  0  0  0  0  0  0  0  0
   18.0636   42.9237  -23.2987 H   0  0  0  0  0  0  0  0  0  0  0  0
   16.5527   46.8735  -20.2264 H   0  0  0  0  0  0  0  0  0  0  0  0
   13.5478   44.5866  -22.1490 H   0  0  0  0  0  0  0  0  0  0  0  0
   15.8548   44.7722  -21.3838 H   0  0  0  0  0  0  0  0  0  0  0  0
   16.8815   44.7134  -24.2184 H   0  0  0  0  0  0  0  0  0  0  0  0
   15.8605   43.4720  -23.4501 H   0  0  0  0  0  0  0  0  0  0  0  0
    8.6601   48.8479  -23.7610 H   0  0  0  0  0  0  0  0  0  0  0  0
   15.0281   46.3394  -23.8231 H   0  0  0  0  0  0  0  0  0  0  0  0
   14.0335   46.5103  -20.9517 H   0  0  0  0  0  0  0  0  0  0  0  0
   11.7838   50.8777  -18.0081 H   0  0  0  0  0  0  0  0  0  0  0  0
   10.8637   47.6987  -23.7077 H   0  0  0  0  0  0  0  0  0  0  0  0
   11.4784   49.2680  -23.1016 H   0  0  0  0  0  0  0  0  0  0  0  0
   11.7822   46.7193  -16.8903 H   0  0  0  0  0  0  0  0  0  0  0  0
    9.2379   47.5976  -21.9771 H   0  0  0  0  0  0  0  0  0  0  0  0
   13.5104   47.4431  -16.1336 H   0  0  0  0  0  0  0  0  0  0  0  0
   10.3532   50.2452  -20.9839 H   0  0  0  0  0  0  0  0  0  0  0  0
    6.1413   50.0813  -19.7544 H   0  0  0  0  0  0  0  0  0  0  0  0
    6.8760   49.7609  -18.1655 H   0  0  0  0  0  0  0  0  0  0  0  0
    6.5918   51.4372  -18.6934 H   0  0  0  0  0  0  0  0  0  0  0  0
   15.0102   49.8085  -21.0797 H   0  0  0  0  0  0  0  0  0  0  0  0
   10.3706   47.5237  -19.7773 H   0  0  0  0  0  0  0  0  0  0  0  0
   19.6314   46.0829  -22.0849 H   0  0  0  0  0  0  0  0  0  0  0  0
   10.2757   49.1652  -18.0704 H   0  0  0  0  0  0  0  0  0  0  0  0
   13.1829   48.4615  -18.3359 H   0  0  0  0  0  0  0  0  0  0  0  0
   11.2870   48.7395  -16.0026 H   0  0  0  0  0  0  0  0  0  0  0  0
   12.4897   49.9703  -16.5111 H   0  0  0  0  0  0  0  0  0  0  0  0
   15.6794   48.4761  -22.6274 H   0  0  0  0  0  0  0  0  0  0  0  0
   20.1956   48.8543  -21.9012 H   0  0  0  0  0  0  0  0  0  0  0  0
  1  4  1  0  0  0  0
  1 47  1  0  0  0  0
  1 48  1  0  0  0  0
  1 49  1  0  0  0  0
  2  7  1  0  0  0  0
  2 50  1  0  0  0  0
  2  4  1  0  0  0  0
  3  4  2  0  0  0  0
  5 35  1  0  0  0  0
  5 51  1  0  0  0  0
  6 52  1  0  0  0  0
  7  9  1  0  0  0  0
  7 46  1  0  0  0  0
  7 53  1  0  0  0  0
  8 11  1  0  0  0  0
  6  9  1  0  0  0  0
  8  9  1  0  0  0  0
  9 54  1  0  0  0  0
 10 55  1  0  0  0  0
 11 13  1  0  0  0  0
 11 15  1  0  0  0  0
 11 56  1  0  0  0  0
 12 17  1  0  0  0  0
 10 13  1  0  0  0  0
 13 57  1  0  0  0  0
 13 58  1  0  0  0  0
 14 19  1  0  0  0  0
 12 15  1  0  0  0  0
 15 46  1  0  0  0  0
 15 59  1  0  0  0  0
 16 60  1  0  0  0  0
 14 17  1  0  0  0  0
 17 45  1  0  0  0  0
 17 61  1  0  0  0  0
 18 62  1  0  0  0  0
 19 21  1  0  0  0  0
 19 23  1  0  0  0  0
 19 63  1  0  0  0  0
 20 27  1  0  0  0  0
 16 21  1  0  0  0  0
 21 64  1  0  0  0  0
 21 65  1  0  0  0  0
 22 66  1  0  0  0  0
 18 23  1  0  0  0  0
 23 25  1  0  0  0  0
 23 67  1  0  0  0  0
 20 25  1  0  0  0  0
 25 45  1  0  0  0  0
 25 68  1  0  0  0  0
 26 27  1  0  0  0  0
 27 29  1  0  0  0  0
 27 44  1  0  0  0  0
 28 69  1  0  0  0  0
 29 31  1  0  0  0  0
 29 70  1  0  0  0  0
 29 71  1  0  0  0  0
 30 72  1  0  0  0  0
 22 31  1  0  0  0  0
 31 33  1  0  0  0  0
 31 73  1  0  0  0  0
 32 74  1  0  0  0  0
  5 33  1  0  0  0  0
 33 39  1  0  0  0  0
 33 75  1  0  0  0  0
 24 35  2  0  0  0  0
 35 37  1  0  0  0  0
 37 76  1  0  0  0  0
 37 77  1  0  0  0  0
 37 78  1  0  0  0  0
 38 79  1  0  0  0  0
 26 39  1  0  0  0  0
 39 41  1  0  0  0  0
 39 80  1  0  0  0  0
 40 81  1  0  0  0  0
 28 41  1  0  0  0  0
 41 42  1  0  0  0  0
 41 82  1  0  0  0  0
 30 42  1  0  0  0  0
 42 43  1  0  0  0  0
 42 83  1  0  0  0  0
 32 43  1  0  0  0  0
 43 84  1  0  0  0  0
 43 85  1  0  0  0  0
 34 44  4  0  0  0  0
 36 44  4  0  0  0  0
 38 45  1  0  0  0  0
 45 86  1  0  0  0  0
 40 46  1  0  0  0  0
 46 87  1  0  0  0  0
M  END
$$$$
